 PDE    1973  01 05 133950.40  48.16  146.82 430  5.1 mbGS    ... .......      
 PDE    1973  02 05 043033.10  43.92  147.47  53  5.3 mbGS    ... .......      
 PDE    1973  02 17 191511.40  45.21  148.57 113  5.3 mbGS    ... .......      
 PDE    1973  03 03 024209     50.44  156.28  59  5.5 mbGS    ... .......      
 PDE    1973  03 12 193921     50.83  157.10  54  6.2 UKPAS   ... .......      
 PDE    1973  03 21 022421.30  50.82  157.16  55  5.2 mbGS    ... .......      
 PDE    1973  04 08 215459.20  47.00  152.29 104  5.6 mbGS    ... .......      
 PDE    1973  04 12 121715     49.98  155.99  55  5.2 mbGS    ... .......      
 PDE    1973  04 12 134915.80  50.89  157.44  52  6.5 UKPAS   ... .......      
 PDE    1973  05 08 074859.80  45.65  149.56  95  5.4 mbGS    ... .......      
 PDE    1973  05 14 021901.60  44.06  148.22  64  5.5 mbGS    ... .......      
 PDE    1973  06 13 002049.50  46.97  150.99 142  5.5 mbGS    ... .......      
 PDE    1973  06 24 024325.50  43.32  146.44  50  7.1 MsGS    8C. .T.....      
 PDE    1973  06 24 030418.60  43.20  146.79  55  5.8 mbGS    3F. .......      
 PDE    1973  06 24 044325.70  43.11  146.75  62  5.0 mbGS    ... .......      
 PDE    1973  06 24 105354.10  43.06  146.48  60  5.4 mbGS    3F. .......      
 PDE    1973  06 24 200016.10  43.30  146.80  51  5.1 mbGS    3F. .......      
 PDE    1973  06 26 113923.90  43.06  146.61  57  5.3 mbGS    3F. .......      
 PDE    1973  06 26 223200.20  43.17  146.56  50  6.6 MsGS    4F. .......      
 PDE    1973  07 08 095945.80  43.42  146.40  61  5.0 mbGS    3F. .......      
 PDE    1973  07 13 133939.40  43.67  147.19  60  5.0 mbGS    ... .......      
 PDE    1973  07 28 200636     50.48  148.85 592  5.5 mbGS    ... .......      
 PDE    1973  07 29 145103.10  43.09  146.80  52  5.4 mbGS    3F. .......      
 PDE    1973  08 06 231159.80  44.31  147.79  89  5.3 mbGS    ... .......      
 PDE    1973  08 09 104426.50  43.45  146.43  55  6.0 mbGS    5F. .......      
 PDE    1973  10 19 234009.30  44.18  149.04  51  5.2 mbGS    ... .......      
 PDE    1973  11 11 024306.20  49.97  156.36  51  6.0 mbGS    ... .......      
 PDE    1973  11 13 024714.90  49.60  151.21 326  5.1 mbGS    ... .......      
 PDE    1973  11 18 120735.80  44.46  148.78  50  5.1 mbGS    ... .......      
 PDE    1973  11 21 210520.40  46.13  151.45  84  5.6 mbGS    ... .......      
 PDE    1973  12 06 051752.80  43.12  146.28  58  5.0 mbGS    3F. .......      
 PDE    1974  01 17 083906.70  43.79  147.21  77  5.2 mbGS    3F. .......      
 PDE    1974  03 11 113733.50  48.32  153.20 169  5.9 mbGS    ... .......      
 PDE    1974  04 09 131121.60  45.49  148.29 139  5.5 mbGS    ... .......      
 PDE    1974  05 05 191040     46.15  149.21 143  5.1 mbGS    ... .......      
 PDE    1974  05 15 185955.90  50.05  156.11  56  6.5 UKPAS   ... .......      
 PDE    1974  07 28 113459.70  46.29  153.33  52  6.3 UKPAS   2F. .......      
 PDE    1974  07 28 115251.90  46.33  153.43  60  5.0 mbGS    ... .......      
 PDE    1974  07 28 133139.30  46.27  153.51  66  5.3 mbGS    ... .......      
 PDE    1974  07 28 162732.60  46.09  153.27  52  5.1 mbGS    ... .......      
 PDE    1974  07 29 011451     46.88  152.81  54  5.0 mbGS    ... .......      
 PDE    1974  08 06 164922.20  46.76  150.42 166  5.2 mbGS    ... .......      
 PDE    1974  09 16 205703.30  44.32  148.74  54  5.3 mbGS    2F. .......      
 PDE    1974  09 21 155459.10  52.17  157.51 118  5.8 mbGS    ... .......      
 PDE    1974  10 15 060411.80  44.45  148.37  79  5.0 mbGS    ... .......      
 PDE    1974  11 07 045907.90  43.32  146.27  55  5.0 mbGS    ... .......      
 PDE    1974  12 20 163855.60  49.83  149.68 416  5.0 mbGS    ... .......      
 PDE    1975  01 02 085900.50  46.88  151.56  52  5.7 mbGS    ... .......      
 PDE    1975  01 08 193237.10  44.68  146.86  82  5.2 mbGS    ... .......      
 PDE    1975  02 02 161723.70  44.63  146.93  80  5.5 mbGS    ... .......      
 PDE    1975  02 03 080704     48.28  157.15  66  5.0 mbGS    ... .......      
 PDE    1975  05 11 065645.10  49.33  156.15  58  5.5 mbGS    3F. .......      
 PDE    1975  05 14 183707.10  51.12  157.78  57  5.0 mbGS    ... .......      
 PDE    1975  05 18 223417.30  44.37  147.77 100  5.3 mbGS    3F. .......      
 PDE    1975  05 19 224217     49.72  157.40  57  5.4 mbGS    3F. .......      
 PDE    1975  06 12 001430.20  46.69  152.60  60  5.3 mbGS    ... .......      
 PDE    1975  06 22 042515.30  51.99  157.58 133  5.3 mbGS    ... .......      
 PDE    1975  07 02 194233.50  48.32  154.42  59  5.0 mbGS    ... .......      
 PDE    1975  07 20 080240.60  44.39  148.05  82  5.8 mbGS    4F. .......      
 PDE    1975  07 29 140032.40  46.62  151.49  83  5.2 mbGS    ... .......      
 PDE    1975  08 31 224129.90  44.47  148.11  55  5.0 mbGS    ... .......      
 PDE    1975  09 12 152835.10  51.90  157.22  88  5.6 mbGS    ... .......      
 PDE    1975  09 19 031521.10  47.04  151.86 119  5.5 mbGS    ... .......      
 PDE    1975  11 13 154846     50.30  156.69  69  5.1 mbGS    ... .......      
 PDE    1975  12 05 201418.20  43.60  146.39  68  5.8 mbGS    6F. .......      
 PDE    1975  12 11 164314     44.79  148.99  67  5.6 mbGS    ... .......      
 PDE    1975  12 21 105417.70  51.94  151.58 554  6.4 UKPAS   ... .......      
 PDE    1976  01 21 102249     44.50  149.31  50  5.6 mbGS    ... .......      
 PDE    1976  01 21 105115.40  44.85  149.39  56  5.7 mbGS    ... .......      
 PDE    1976  01 22 090056.80  44.52  149.18  55  5.6 mbGS    2F. .......      
 PDE    1976  01 22 162115.10  44.44  149.22  52  5.2 mbGS    ... .......      
 PDE    1976  01 22 172616.80  44.51  149.10  52  5.2 mbGS    ... .......      
 PDE    1976  01 25 122355.50  44.80  149.79  54  6.0 UKPAS   ... .......      
 PDE    1976  01 25 174608.70  44.55  149.03  57  5.1 mbGS    ... .......      
 PDE    1976  03 29 194839.80  46.01  149.51 162  5.5 mbGS    ... .......      
 PDE    1976  04 11 025302.60  43.85  146.26  97  5.1 mbGS    ... .......      
 PDE    1976  04 13 072620.20  47.15  152.52  94  5.0 mbGS    ... .......      
 PDE    1976  05 31 131735.70  48.12  152.74 111  5.1 mbGS    ... .......      
 PDE    1976  07 22 065722.10  46.18  151.45  79  5.3 mbGS    ... .......      
 PDE    1976  09 12 034945.60  50.18  154.50 146  5.0 mbGS    ... .......      
 PDE    1976  09 22 001608.20  44.88  149.23  64  6.1 mbGS    3F. .......      
 PDE    1976  10 08 143833.80  49.71  155.96  69  5.2 mbGS    ... .......      
 PDE    1976  10 26 055953     46.06  150.82 120  5.3 mbGS    3F. .......      
 PDE    1976  10 28 203731.60  48.56  153.19 140  5.2 mbGS    ... .......      
 PDE    1976  11 12 050602     44.78  149.27  75  5.2 mbGS    ... .......      
 PDE    1976  11 15 141418.40  45.22  148.36 147  5.1 mbGS    ... .......      
 PDE    1976  11 17 053334.60  50.98  156.22 112  5.5 mbGS    ... .......      
 PDE    1976  12 09 153741.30  44.53  147.79 106  5.2 mbGS    ... .......      
 PDE    1976  12 19 143752.80  46.58  151.57  91  5.3 mbGS    ... .......      
 PDE    1977  02 22 013313.80  51.16  156.54  96  5.1 mbGS    ... .......      
 PDE    1977  03 19 105625.10  44.20  148.20  70  6.0 mbGS    4F. .......      
 PDE    1977  04 10 083133.40  44.47  147.55  84  5.4 mbGS    4F. .......      
 PDE    1977  05 12 213733.40  50.16  154.99 126  5.3 mbGS    ... .......      
 PDE    1977  05 15 002059.60  49.59  152.91 221  5.0 mbGS    ... .......      
 PDE    1977  06 19 114723.40  47.15  151.09 149  5.6 mbGS    ... .......      
 PDE    1977  09 21 210144     51.75  155.21 231  5.6 mbGS    ... .......      
 PDE    1977  10 04 213443.50  51.49  156.62  95  5.2 mbGS    ... .......      
 PDE    1977  10 19 212041.60  49.35  155.63  62  5.3 mbGS    ... .......      
 PDE    1977  11 18 211833.20  43.88  147.69  70  5.0 mbGS    ... .......      
 PDE    1977  12 04 113902.80  48.25  146.59 479  5.1 mbGS    ... .......      
 PDE    1977  12 10 231137.10  47.59  152.84 128  5.2 mbGS    ... .......      
 PDE    1977  12 20 085038.20  48.59  153.01 140  5.8 mbGS    ... .......      
 PDE    1978  01 10 005017.10  46.83  152.27  61  5.6 mbGS    4F. .......      
 PDE    1978  01 13 200303.80  44.69  149.70  52  6.0 mbGS    ... .......      
 PDE    1978  01 13 213940.30  44.45  149.69  51  5.0 mbGS    ... .......      
 PDE    1978  01 14 090316.60  44.46  149.68  51  5.4 mbGS    ... .......      
 PDE    1978  01 14 092028.30  44.52  149.80  53  5.0 mbGS    ... .......      
 PDE    1978  01 24 055423.50  44.73  149.72  56  5.9 MsGS    3F. .......      
 PDE    1978  01 29 020501.70  45.97  149.15 146  5.5 mbGS    ... .......      
 PDE    1978  02 01 145841.20  49.05  153.58 101  5.1 mbGS    ... .......      
 PDE    1978  03 19 144947.80  48.83  155.20  61  5.2 mbGS    ... .......      
 PDE    1978  03 23 003635.40  44.02  148.82  54  5.6 mbGS    ... .......      
 PDE    1978  03 23 023700.90  44.20  148.73  50  5.8 mbGS    3F. .......      
 PDE    1978  03 23 035052.50  44.38  149.58  50  6.0 mbGS    4F. .......      
 PDE    1978  03 23 134944.50  44.26  149.42  50  5.1 mbGS    ... .......      
 PDE    1978  03 25 012504.60  44.18  148.89  57  5.0 mbGS    ... .......      
 PDE    1978  03 25 080148.40  44.11  149.00  50  5.3 mbGS    ... .......      
 PDE    1978  03 25 165513.30  44.10  148.82  50  5.2 mbGS    ... .......      
 PDE    1978  03 28 201705.80  48.76  154.92  53  5.8 MsGS    ... .......      
 PDE    1978  04 07 074456.20  44.41  149.34  50  5.8 mbGS    2F. .......      
 PDE    1978  04 07 153430.90  51.06  156.59 141  5.0 mbGS    2F. .......      
 PDE    1978  04 12 012226.70  44.26  148.09  87  5.4 mbGS    2F. .......      
 PDE    1978  04 20 221928.60  46.78  151.90  96  5.5 mbGS    ... .......      
 PDE    1978  06 06 035833     51.18  157.64  66  5.4 mbGS    5F. .......      
 PDE    1978  06 15 092857.20  44.03  149.16  63  5.6 mbGS    ... .......      
 PDE    1978  06 21 111038.20  48.31  148.61 377  5.9 mbGS    5F. .......      
 PDE    1978  07 10 060220.60  48.79  150.10 342  5.1 mbGS    ... .......      
 PDE    1978  07 24 062349     44.91  150.29  56  5.1 mbGS    ... .......      
 PDE    1978  08 14 184624.10  49.87  156.28  86  5.8 mbGS    5F. .......      
 PDE    1978  08 16 203906.90  48.48  153.67 100  5.0 mbGS    5F. .......      
 PDE    1978  08 22 143109.20  44.08  148.91  50  5.0 mbGS    ... .......      
 PDE    1978  09 03 073123.80  49.45  154.35 109  5.5 mbGS    ... .......      
 PDE    1978  10 04 035418.40  46.27  151.72 115  5.7 mbGS    4F. .......      
 PDE    1978  10 28 163018.30  50.25  155.69 135  5.5 mbGS    ... .......      
 PDE    1978  10 31 214402.50  44.10  148.17  57  5.0 mbGS    ... .......      
 PDE    1978  11 05 052504.90  48.88  153.92 138  5.1 mbGS    ... .......      
 PDE    1978  11 13 082221.20  44.55  148.06  64  5.3 mbGS    3F. .......      
 PDE    1978  12 06 140201     44.59  146.58  91  7.5 UKPAS   8D. .......      
 PDE    1978  12 09 041705.80  45.34  150.11  54  5.6 mbGS    4F. .......      
 PDE    1978  12 09 210059.20  44.70  146.51 130  5.2 mbGS    3F. .......      
 PDE    1979  01 25 210321     50.50  148.90 575  5.4 mbGS    ... .......      
 PDE    1979  02 23 014118.50  45.81  151.25  58  5.0 mbGS    ... .......      
 PDE    1979  05 14 153953     44.76  147.59 108  5.6 mbGS    3F. .......      
 PDE    1979  07 04 060745.20  43.95  146.70  78  6.0 mbGS    6F. .......      
 PDE    1979  07 05 061129.20  43.91  146.60  70  5.2 mbGS    5F. .......      
 PDE    1979  07 20 212002.30  47.46  152.31 132  5.2 mbGS    ... .......      
 PDE    1979  08 22 182855.60  52.27  157.33 134  6.5 UKPAS   4F. .......      
 PDE    1979  08 28 203914.20  51.13  157.70  61  5.0 mbGS    5F. .......      
 PDE    1979  10 17 123137.80  44.05  148.15  52  5.1 mbGS    ... .......      
 PDE    1979  11 13 033236.40  43.62  146.34  77  5.0 mbGS    ... .......      
 PDE    1979  12 15 134612     44.48  148.27  51  5.1 mbGS    3F. .......      
 PDE    1979  12 30 041833.80  52.53  152.26 555  5.4 mbGS    ... .......      
 PDE    1980  01 07 200657.30  51.32  156.67 112  5.6 mbGS    5F. .......      
 PDE    1980  02 09 002714.80  43.96  147.90  58  5.1 mbGS    ... .......      
 PDE    1980  02 10 115432.80  43.99  147.23  73  5.5 mbGS    5F. .......      
 PDE    1980  02 15 121449.40  44.45  149.77  52  5.2 mbGS    2F. .......      
 PDE    1980  02 15 185918.60  44.47  149.64  53  5.2 mbGS    ... .......      
 PDE    1980  02 15 194109.70  44.41  149.62  54  5.2 mbGS    ... .......      
 PDE    1980  02 23 064926     43.49  146.65  58  5.6 mbGS    5F. .......      
 PDE    1980  03 04 082113.30  46.85  147.26 268  5.0 mbGS    ... .......      
 PDE    1980  03 31 021639.50  47.63  152.63 143  5.1 mbGS    ... .......      
 PDE    1980  05 30 181733.70  48.75  154.31  51  5.3 mbGS    ... .......      
 PDE    1980  06 10 231323.70  51.55  150.64 543  5.2 mbGS    ... .......      
 PDE    1980  08 06 104527.90  45.82  149.12 129  5.2 mbGS    ... .......      
 PDE    1980  12 11 225322.70  47.84  146.01 417  5.2 mbGS    ... .......      
 PDE    1980  12 22 203145.30  48.17  146.21 483  5.4 mbGS    ... .......      
 PDE    1981  01 13 105125.30  46.76  150.64 154  5.0 mbGS    ... .......      
 PDE    1981  01 15 171042.10  46.12  149.34 123  5.1 mbGS    ... .......      
 PDE    1981  01 29 045802.10  43.41  146.75  59  5.2 mbGS    ... .......      
 PDE    1981  02 06 164707.40  48.30  146.35 479  6.0 UKPAS   ..C .......      
 PDE    1981  04 18 123133.60  49.16  154.15 120  5.0 mbGS    ... .......      
 PDE    1981  05 08 064446.60  44.85  146.20 134  5.2 mbGS    ... .......      
 PDE    1981  07 31 210651.86  51.23  157.71  50  5.2 mbGS    ... .......      
 PDE    1981  10 03 072148.17  43.84  146.64  75  5.1 mbGS    ... .......      
 PDE    1981  10 13 155355.80  51.48  157.44 112  5.3 mbGS    4F. .......      
 PDE    1981  11 13 193507.40  43.48  146.43  59  5.1 mbGS    4F. .......      
 PDE    1981  12 30 112639.13  43.70  147.66  62  5.2 mbGS    ... .......      
 PDE    1982  01 29 000204.45  49.17  147.84 535  5.1 mbGS    ..M .......      
 PDE    1982  04 15 091248.75  46.62  150.56 196  5.1 mbGS    ... .......      
 PDE    1982  08 08 061409.52  51.05  156.44 140  5.3 mbGS    .F. .......      
 PDE    1982  09 26 044637.81  47.01  152.29 112  5.6 mbGS    ..M .......      
 PDE    1982  11 27 095538.94  50.21  147.73 622  6.1 mbPAS   ..M .......      
 PDE    1982  12 24 181022.19  44.04  149.53  56  5.1 mbGS    ... .......      
 PDE    1983  01 06 122948.66  44.54  148.12  65  5.4 mbGS    2F. .......      
 PDE    1983  01 13 150510.57  44.43  148.18  82  5.0 mbGS    2F. .......      
 PDE    1983  01 27 040512.79  44.47  148.20  69  5.0 mbGS    2F. .......      
 PDE    1983  02 26 071059.16  49.24  155.60  56  6.0 mbGS    5FM .......      
 PDE    1983  04 04 231247.19  49.41  155.60  51  6.5 MsGS    5FM .......      
 PDE    1983  04 11 153455.49  44.29  147.75  97  5.7 mbGS    4FM .......      
 PDE    1983  04 25 140043.11  51.32  156.88  96  5.2 mbGS    4FM .......      
 PDE    1983  04 28 085806.85  51.17  156.28 120  5.0 mbGS    ... .......      
 PDE    1983  05 25 003535.68  51.61  156.94 120  5.2 mbGS    2F. .......      
 PDE    1983  06 20 151435.51  44.42  148.65 104  5.2 mbGS    3F. .......      
 PDE    1983  06 24 090716.88  45.08  147.07  92  5.0 mbGS    ... .......      
 PDE    1983  08 02 060806.66  45.14  153.49  56  5.5 mbGS    2FM .......      
 PDE    1983  08 15 044955.10  47.42  153.17  82  5.0 mbGS    ... .......      
 PDE    1983  08 20 144826.56  50.93  156.12  84  5.0 mbGS    3F. .......      
 PDE    1983  08 28 113014.59  46.18  151.51  74  5.5 mbGS    2FM .......      
 PDE    1983  09 22 163349.16  47.62  150.30 244  5.0 mbGS    ... .......      
 PDE    1983  10 16 235736.51  44.79  149.96  56  5.2 mbGS    ... .......      
 PDE    1983  10 30 213916.37  47.79  152.87  78  5.7 mbGS    ... .......      
 PDE    1983  12 08 135051.05  46.25  150.93  97  5.6 mbGS    ... .......      
 PDE    1983  12 16 040045.54  43.15  146.27  89  5.1 mbGS    2F. .......      
 PDE    1983  12 24 041045.59  45.42  151.38  52  5.6 mbGS    ..M .......      
 PDE    1984  01 13 222222.17  48.37  153.90  83  5.1 mbGS    ... .......      
 PDE    1984  02 01 072828.70  49.06  146.59 573  6.1 mbBRK   3FM .......      
 PDE    1984  02 06 144012.14  45.53  150.17  95  5.6 mbGS    3F. .......      
 PDE    1984  02 27 111838.50  47.62  152.57 142  5.0 mbGS    ... .......      
 PDE    1984  03 03 140410.42  43.33  146.36  57  5.3 mbGS    5FM .......      
 PDE    1984  03 24 104226.47  43.83  148.73  50  5.1 mbGS    ... .......      
 PDE    1984  04 20 063110.63  50.12  148.74 582  6.0 mbGS    ..M .......      
 PDE    1984  04 20 144226.34  47.53  155.81  50  5.0 mbGS    ... .......      
 PDE    1984  04 23 084834.87  44.35  151.15  83  5.0 mbGS    ... .......      
 PDE    1984  04 23 214035.51  47.45  146.69 414  6.0 mbGS    3F. .......      
 PDE    1984  06 04 183605.84  51.22  150.77 498  5.2 mbGS    ..M .......      
 PDE    1984  06 19 180620.63  49.78  155.86  50  5.0 mbGS    4F. .......      
 PDE    1984  07 16 152004.79  49.22  155.01  51  5.1 mbGS    ... .......      
 PDE    1984  07 23 000035.33  50.80  157.05  55  5.1 mbGS    ... .......      
 PDE    1984  07 23 151326.55  49.56  155.92  76  5.3 mbGS    ... .......      
 PDE    1984  08 22 232848.05  49.03  153.49 134  5.3 mbGS    ..M .......      
 PDE    1984  11 17 111220.73  47.53  154.52  56  5.4 mbGS    ... .......      
 PDE    1984  12 03 040835.10  44.21  148.14  64  6.4 mbGS    5F. .......      
 PDE    1984  12 19 001657.06  44.17  149.30  50  5.3 mbGS    ..M .......      
 PDE    1985  01 26 174114.43  44.89  146.64 173  5.3 mbGS    4FM .......      
 PDE    1985  03 02 125434.33  45.83  150.70 111  5.0 mbGS    ... .......      
 PDE    1985  03 16 144557.12  45.65  152.17  52  5.1 mbGS    ... .......      
 PDE    1985  03 27 124812.35  44.33  146.67 154  5.9 mbGS    6F. .......      
 PDE    1985  05 30 130621.76  49.13  154.09 150  5.5 mbGS    ..M .......      
 PDE    1985  06 07 052135.62  44.50  149.41  51  5.1 mbGS    2F. .......      
 PDE    1985  08 24 160003.42  50.20  156.72  80  5.2 mbGS    ... .......      
 PDE    1985  09 01 215802.62  43.82  147.98  65  5.0 mbGS    ... .......      
 PDE    1985  09 18 012717.60  49.64  155.75  56  5.5 mbGS    4FM .......      
 PDE    1985  10 18 041906.40  46.32  146.27 271  5.9 mbGS    3F. .......      
 PDE    1985  10 22 105132.52  44.01  148.12  50  5.3 mbGS    3F. .......      
 PDE    1985  11 26 161814.04  46.49  149.87 103  5.0 mbGS    ... .......      
 PDE    1985  12 10 112053.23  44.15  146.88 117  5.3 mbGS    2FM .......      
 PDE    1986  02 04 080405     47.58  152.65 141  5.0 mbGS    ... .......      
 PDE    1986  02 19 105446.21  48.58  153.41 114  5.3 mbGS    ..M .......      
 PDE    1986  03 02 031441.81  51.68  156.94 117  5.6 mbGS    4FM .......      
 PDE    1986  03 14 084215.24  43.99  147.63  82  5.7 mbGS    5FM .......      
 PDE    1986  03 28 182410.65  48.84  154.80  88  5.2 mbGS    ..M .......      
 PDE    1986  04 05 225910.28  44.45  147.90  88  5.3 mbGS    2FM .......      
 PDE    1986  06 08 110225.87  43.27  146.49  56  6.0 mbGS    5FM .......      
 PDE    1986  07 08 203426.35  43.82  146.40  79  5.0 mbGS    3F. .......      
 PDE    1986  07 19 055936.21  47.26  151.13 141  5.9 mbGS    2FM .......      
 PDE    1986  08 28 161954.31  51.33  157.57  76  5.0 mbGS    ... .......      
 PDE    1986  09 01 214735.06  46.63  150.01 148  5.2 mbGS    ... .......      
 PDE    1987  01 04 102145.88  49.77  149.29 489  5.1 mbGS    ..M .......      
 PDE    1987  01 22 121544.51  43.16  146.48  65  5.4 mbGS    5FM .......      
 PDE    1987  02 07 180834.01  46.52  149.83 152  5.1 mbGS    ... .......      
 PDE    1987  02 24 074008.71  52.56  157.74 120  5.0 mbGS    ... .......      
 PDE    1987  03 03 013212.31  46.35  152.01  96  5.8 mbGS    3F. .......      
 PDE    1987  05 18 030734.13  49.28  147.69 542  6.3 mbPAS   3FM .......      
 PDE    1987  05 18 071803.26  44.41  147.10 110  5.3 mbGS    3FM .......      
 PDE    1987  05 30 171900.16  44.67  150.29  52  5.3 mbGS    ..M .......      
 PDE    1987  07 08 225602.76  46.44  149.56 151  5.4 mbGS    2FM .......      
 PDE    1987  07 11 051315.18  50.20  156.28  75  5.4 mbGS    ..M .......      
 PDE    1987  07 14 234603.51  49.63  147.83 576  6.0 mbBRK   ..M .......      
 PDE    1987  07 20 081352.74  43.85  146.88  69  5.1 mbGS    3F. .......      
 PDE    1987  08 10 175743.94  43.62  147.66  53  5.2 mbGS    3F. .......      
 PDE    1987  09 06 195935.02  49.13  156.19  51  5.2 mbGS    ... .......      
 PDE    1987  09 08 133516.19  49.61  156.36  83  5.6 mbGS    ..M .......      
 PDE    1987  09 19 215800.83  49.65  156.32  84  5.4 mbGS    ..M .......      
 PDE    1987  09 23 071543.25  45.96  149.52 130  5.9 mbGS    3F. .......      
 PDE    1987  10 07 061858.72  44.62  150.34  54  5.5 mbGS    ..M .......      
 PDE    1987  10 13 064110.06  45.27  150.05  50  5.0 mbGS    ..M .......      
 PDE    1987  11 06 222712.98  43.42  146.26  61  5.2 mbGS    6FM .......      
 PDE    1987  11 18 000705.97  46.87  151.90 118  5.0 mbGS    ... .......      
 PDE    1987  12 14 003611.84  44.55  148.12  72  5.2 mbGS    3F. .......      
 PDE    1988  01 04 103703.45  46.51  149.88 204  5.2 mbGS    ..M .......      
 PDE    1988  01 08 024029.76  44.17  148.77  73  5.2 mbGS    3F. .......      
 PDE    1988  01 29 062802.98  45.16  152.01  62  5.2 mbGS    ... .......      
 PDE    1988  02 02 155850.20  45.29  150.09  50  5.2 mbGS    ..M .......      
 PDE    1988  02 20 221200.05  46.67  152.59  53  5.6 mbGS    ..M .......      
 PDE    1988  03 14 191704.09  49.67  156.31  61  5.3 mbGS    ..M .......      
 PDE    1988  05 01 100647.53  49.23  157.61  50  5.1 mbGS    ..M .......      
 PDE    1988  05 15 082205.58  43.78  147.74  56  5.4 mbGS    4FM .......      
 PDE    1988  07 25 102837.07  52.37  156.82 172  5.1 mbGS    ... .......      
 PDE    1988  07 25 234235.18  50.95  157.70  84  5.6 mbGS    ..M .......      
 PDE    1988  07 28 035817.98  51.01  156.85 117  5.0 mbGS    4FM .......      
 PDE    1988  07 30 210721.16  44.77  149.89  61  6.3 mbGS    2FM .......      
 PDE    1988  08 10 020425.07  47.45  153.01 120  5.2 mbGS    ... .......      
 PDE    1988  08 21 114424.42  44.57  149.47  52  5.0 mbGS    ..M .......      
 PDE    1988  09 11 113313.02  50.34  155.17 118  5.0 mbGS    ..M .......      
 PDE    1988  09 21 095853.57  46.19  152.21  51  5.9 mbGS    ..M .......      
 PDE    1988  10 12 032700.64  44.00  148.60  65  5.4 mbGS    2FM .......      
 PDE    1988  10 19 195137.75  47.74  151.33 184  5.2 mbGS    ... .......      
 PDE    1988  10 22 160413.33  49.04  156.10  50  5.6 mbGS    3FM .......      
 PDE    1988  10 30 231749.33  46.08  149.57 143  5.3 mbGS    ... .......      
 PDE    1988  12 20 101837.67  43.94  146.13 114  5.3 mbGS    5F. .......      
 PDE    1989  01 29 173448.81  44.56  148.75  50  5.2 mbGS    2FM .......      
 PDE    1989  02 16 215037.89  45.31  151.80  95  5.6 mbGS    3FM .......      
 PDE    1989  03 01 172111.07  43.85  149.12  56  5.0 mbGS    ... .......      
 PDE    1989  07 10 235915.09  46.05  151.32  75  5.5 mbGS    ..M .......      
 PDE    1989  08 11 042123.47  45.83  150.69  84  5.2 mbGS    ... .......      
 PDE    1989  08 30 060506.82  51.35  157.96  51  5.0 mbGS    ... .......      
 PDE    1989  10 23 133214.24  49.96  150.52 378  5.0 mbGS    ... .......      
 PDE    1989  11 09 013657.79  46.40  150.15 190  5.0 mbGS    ... .......      
 PDE    1989  11 10 232140.66  46.09  151.70  56  5.6 mbGS    ..M .......      
 PDE    1989  11 21 023647.82  44.63  148.20  52  5.5 mbGS    4F. .......      
 PDE    1990  01 08 214002.84  46.41  152.37  55  5.0 mbGS    ... .......      
 PDE    1990  03 10 101503.90  50.91  157.24  50  5.7 mbGS    .FM .......      
 PDE    1990  05 02 010124.93  49.27  155.62  94  5.2 mbGS    ..M .......      
 PDE    1990  06 30 205145.60  44.15  149.23  50  5.0 mbGS    ... .......      
 PDE    1990  10 16 061313.74  49.04  155.08  82  6.0 mbGS    4F. .......      
 PDE    1990  12 26 012434.07  48.31  153.90  87  5.0 mbGS    ... .......      
 PDE    1991  01 10 135719.82  51.54  157.28  70  5.4 mbGS    4F. .......      
 PDE    1991  01 11 140243.98  47.10  152.34  94  5.1 mbGS    ... .......      
 PDE    1991  01 20 110729.47  43.45  147.30  58  5.3 mbGS    3F. .......      
 PDE    1991  02 06 075838.75  52.35  152.41 495  5.4 MwHRV   ..M .......      
 PDE    1991  02 20 203750.94  48.60  153.27 153  5.2 mbGS    ... .......      
 PDE    1991  04 08 133404.46  52.43  157.90 144  5.6 MwHRV   ..M .......      
 PDE    1991  04 13 013829.37  43.73  146.42  71  5.0 mbGS    ... .......      
 PDE    1991  09 23 065830.01  45.54  150.73  55  5.1 mbGS    ... .......      
 PDE    1991  10 08 033115.60  45.59  149.05 145  6.0 mbGS    ..M .......      
 PDE    1991  10 29 092440.07  44.01  148.24  79  5.2 mbGS    ... .......      
 PDE    1991  11 27 222514.91  46.44  152.71  53  5.0 mbGS    ... .......      
 PDE    1991  12 17 063817.32  47.39  151.50 157  5.8 mbGS    ..M .......      
 PDE    1992  02 05 053314.48  45.20  150.98  51  5.4 MwHRV   ..M .......      
 PDE    1992  02 07 000628.71  43.20  146.57  52  5.6 mbGS    ... .......      
 PDE    1992  02 09 220158.40  48.01  152.97 122  5.6 mbGS    ... .......      
 PDE    1992  03 27 202814.72  47.86  147.13 454  5.6 MwHRV   ..M .......      
 PDE    1992  04 05 132504.13  48.29  155.77  61  5.5 MwHRV   ..M .......      
 PDE    1992  05 22 161953.64  49.39  147.80 567  5.6 MwHRV   ..M .......      
 PDE    1992  06 15 120919.46  50.51  149.63 517  5.2 MwHRV   ..M .......      
 PDE    1992  07 10 135733.60  44.63  149.39  50  5.2 mbGS    ... .......      
 PDE    1992  07 12 131415.13  44.53  149.54  54  5.4 MwHRV   ..M .......      
 PDE    1992  07 12 132130.42  44.52  149.57  51  5.7 mbGS    ... .......      
 PDE    1992  07 27 193409.21  51.52  157.13 107  5.7 MwHRV   ..M .......      
 PDE    1992  08 25 012712.38  47.72  153.56  63  5.5 mbGS    ... .......      
 PDE    1992  10 11 232034.77  50.46  153.17 284  5.6 mbGS    ... .......      
 PDE    1992  12 04 053616.50  48.35  153.33 110  5.1 MwHRV   ..M .......      
 PDE    1992  12 07 054939.67  43.79  147.24  50  5.0 mbGS    ... .......      
 PDE    1993  02 07 110819.39  44.38  147.59 107  5.0 MwHRV   ..M .......      
 PDE    1993  03 08 080125.70  43.63  146.03  71  5.1 mbGS    ... .......      
 PDE    1993  03 10 215627.87  48.38  152.99 140  5.2 MwHRV   ..M .......      
 PDE    1993  04 28 023213.72  45.29  149.99  99  5.3 MwHRV   ..M .......      
 PDE    1993  06 08 130336.48  51.22  157.83  70  7.5 MwHRV   7DM .T.....      
 PDE    1993  06 21 165448.55  49.18  150.42 348  5.1 MwHRV   ..M .......      
 PDE    1993  07 28 171640.93  46.36  150.97  86  5.4 mbBRK   ... .......      
 PDE    1993  10 08 182347.70  46.51  150.04 171  5.5 mbGS    ... .......      
 PDE    1993  11 22 041651.31  50.75  156.56  85  5.1 mbGS    ... .......      
 PDE    1993  12 28 222047.58  49.36  155.61  53  5.1 mbGS    ... .......      
 PDE    1994  01 09 212901.90  48.48  154.49  65  5.4 MwHRV   ..M .......      
 PDE    1994  01 24 195437.77  44.98  149.79  50  5.7 MwHRV   ..M .......      
 PDE    1994  03 24 171124.29  50.56  150.33 449  5.2 mbGS    ... .......      
 PDE    1994  04 12 001717.68  44.51  146.61 123  5.4 mbGS    ... .......      
 PDE    1994  04 22 200425.30  47.78  152.82 113  5.0 mbGS    ... .......      
 PDE    1994  05 01 005938.34  47.49  149.79 271  5.4 MwHRV   ..M .......      
 PDE    1994  06 25 083806.80  43.88  147.21  65  5.3 MwHRV   ..M .......      
 PDE    1994  06 30 131031.84  46.63  150.31 168  5.1 mbGS    ... .......      
 PDE    1994  07 15 175307.88  48.78  153.62 118  5.3 MwHRV   ..M .......      
 PDE    1994  08 30 061335.83  44.74  150.12  50  5.7 MwGS    ..M .......      
 PDE    1994  08 30 155804.51  44.68  150.11  51  5.0 mbGS    ... .......      
 PDE    1994  08 30 223211.36  44.64  150.03  54  5.0 mbGS    ... .......      
 PDE    1994  08 31 090725.93  43.72  146.01  76  6.2 MwGS    7FM .......      
 PDE    1994  10 04 134252.31  43.79  147.19  61  6.1 mbGS    ... .......      
 PDE    1994  10 04 135110.66  43.68  147.58  60  5.6 mbGS    ... .......      
 PDE    1994  10 04 141206.52  43.79  147.20  59  5.4 mbGS    ... .......      
 PDE    1994  10 04 144750.64  43.25  147.07  59  5.2 mbGS    ... .......      
 PDE    1994  10 04 200110.19  43.98  147.29  63  5.7 mbGS    ... .......      
 PDE    1994  10 04 225630.59  43.65  147.59  53  5.4 mbGS    ... .......      
 PDE    1994  10 05 005347.33  43.29  146.67  55  5.1 mbGS    ... .......      
 PDE    1994  10 05 012645.94  43.87  147.64  50  5.3 mbGS    ... .......      
 PDE    1994  10 05 034326.26  43.88  147.86  51  5.2 mbGS    ... .......      
 PDE    1994  10 05 123443.07  43.23  147.40  53  5.5 mbGS    ... .......      
 PDE    1994  10 05 172533.85  43.94  147.37  50  5.0 mbGS    ... .......      
 PDE    1994  10 05 193838.06  43.81  147.37  51  5.0 mbGS    ... .......      
 PDE    1994  10 06 184314.01  43.18  147.28  51  5.0 mbGS    ... .......      
 PDE    1994  10 06 232013.37  43.41  147.32  53  5.1 MwHRV   ..M .......      